# generated using pymatgen
data_Zn3H18C20(NO2)4
_symmetry_space_group_name_H-M   'P 1'
_cell_length_a   20.43640000
_cell_length_b   9.00501700
_cell_length_c   16.67230000
_cell_angle_alpha   90.00000000
_cell_angle_beta   110.23030000
_cell_angle_gamma   90.00000000
_symmetry_Int_Tables_number   1
_chemical_formula_structural   Zn3H18C20(NO2)4
_chemical_formula_sum   'Zn12 H72 C80 N16 O32'
_cell_volume   2878.92880480
_cell_formula_units_Z   4
loop_
 _symmetry_equiv_pos_site_id
 _symmetry_equiv_pos_as_xyz
  1  'x, y, z'
loop_
 _atom_site_type_symbol
 _atom_site_label
 _atom_site_symmetry_multiplicity
 _atom_site_fract_x
 _atom_site_fract_y
 _atom_site_fract_z
 _atom_site_occupancy
  Zn  Zn1  1  0.160814  0.305299  0.267514  1.0
  Zn  Zn2  1  0.839186  0.305299  0.232486  1.0
  Zn  Zn3  1  0.660814  0.805299  0.267514  1.0
  Zn  Zn4  1  0.339186  0.805299  0.232486  1.0
  Zn  Zn5  1  0.839186  0.694701  0.732486  1.0
  Zn  Zn6  1  0.160814  0.694701  0.767514  1.0
  Zn  Zn7  1  0.339186  0.194701  0.732486  1.0
  Zn  Zn8  1  0.660814  0.194701  0.767514  1.0
  Zn  Zn9  1  0.000000  0.248151  0.250000  1.0
  Zn  Zn10  1  0.500000  0.748151  0.250000  1.0
  Zn  Zn11  1  0.000000  0.751849  0.750000  1.0
  Zn  Zn12  1  0.500000  0.251849  0.750000  1.0
  H  H13  1  0.228000  0.160900  0.532100  1.0
  H  H14  1  0.772000  0.160900  0.967900  1.0
  H  H15  1  0.728000  0.660900  0.532100  1.0
  H  H16  1  0.272000  0.660900  0.967900  1.0
  H  H17  1  0.772000  0.839100  0.467900  1.0
  H  H18  1  0.228000  0.839100  0.032100  1.0
  H  H19  1  0.272000  0.339100  0.467900  1.0
  H  H20  1  0.728000  0.339100  0.032100  1.0
  H  H21  1  0.069000  0.815100  0.576400  1.0
  H  H22  1  0.931000  0.815100  0.923600  1.0
  H  H23  1  0.569000  0.315100  0.576400  1.0
  H  H24  1  0.431000  0.315100  0.923600  1.0
  H  H25  1  0.931000  0.184900  0.423600  1.0
  H  H26  1  0.069000  0.184900  0.076400  1.0
  H  H27  1  0.431000  0.684900  0.423600  1.0
  H  H28  1  0.569000  0.684900  0.076400  1.0
  H  H29  1  0.043800  0.937000  0.445000  1.0
  H  H30  1  0.956200  0.937000  0.055000  1.0
  H  H31  1  0.543800  0.437000  0.445000  1.0
  H  H32  1  0.456200  0.437000  0.055000  1.0
  H  H33  1  0.956200  0.063000  0.555000  1.0
  H  H34  1  0.043800  0.063000  0.945000  1.0
  H  H35  1  0.456200  0.563000  0.555000  1.0
  H  H36  1  0.543800  0.563000  0.945000  1.0
  H  H37  1  0.312100  0.107700  0.887200  1.0
  H  H38  1  0.687900  0.107700  0.612800  1.0
  H  H39  1  0.812100  0.607700  0.887200  1.0
  H  H40  1  0.187900  0.607700  0.612800  1.0
  H  H41  1  0.687900  0.892300  0.112800  1.0
  H  H42  1  0.312100  0.892300  0.387200  1.0
  H  H43  1  0.187900  0.392300  0.112800  1.0
  H  H44  1  0.812100  0.392300  0.387200  1.0
  H  H45  1  0.275200  0.876100  0.877300  1.0
  H  H46  1  0.724800  0.876100  0.622700  1.0
  H  H47  1  0.775200  0.376100  0.877300  1.0
  H  H48  1  0.224800  0.376100  0.622700  1.0
  H  H49  1  0.724800  0.123900  0.122700  1.0
  H  H50  1  0.275200  0.123900  0.377300  1.0
  H  H51  1  0.224800  0.623900  0.122700  1.0
  H  H52  1  0.775200  0.623900  0.377300  1.0
  H  H53  1  0.398500  0.803800  0.897800  1.0
  H  H54  1  0.601500  0.803800  0.602200  1.0
  H  H55  1  0.898500  0.303800  0.897800  1.0
  H  H56  1  0.101500  0.303800  0.602200  1.0
  H  H57  1  0.601500  0.196200  0.102200  1.0
  H  H58  1  0.398500  0.196200  0.397800  1.0
  H  H59  1  0.101500  0.696200  0.102200  1.0
  H  H60  1  0.898500  0.696200  0.397800  1.0
  H  H61  1  0.393000  0.877000  0.808200  1.0
  H  H62  1  0.607000  0.877000  0.691800  1.0
  H  H63  1  0.893000  0.377000  0.808200  1.0
  H  H64  1  0.107000  0.377000  0.691800  1.0
  H  H65  1  0.607000  0.123000  0.191800  1.0
  H  H66  1  0.393000  0.123000  0.308200  1.0
  H  H67  1  0.107000  0.623000  0.191800  1.0
  H  H68  1  0.893000  0.623000  0.308200  1.0
  H  H69  1  0.352300  0.726000  0.810200  1.0
  H  H70  1  0.647700  0.726000  0.689800  1.0
  H  H71  1  0.852300  0.226000  0.810200  1.0
  H  H72  1  0.147700  0.226000  0.689800  1.0
  H  H73  1  0.647700  0.274000  0.189800  1.0
  H  H74  1  0.352300  0.274000  0.310200  1.0
  H  H75  1  0.147700  0.774000  0.189800  1.0
  H  H76  1  0.852300  0.774000  0.310200  1.0
  H  H77  1  0.065700  0.397150  0.185800  1.0
  H  H78  1  0.934300  0.397150  0.314200  1.0
  H  H79  1  0.565700  0.897150  0.185800  1.0
  H  H80  1  0.434300  0.897150  0.314200  1.0
  H  H81  1  0.934300  0.602850  0.814200  1.0
  H  H82  1  0.065700  0.602850  0.685800  1.0
  H  H83  1  0.434300  0.102850  0.814200  1.0
  H  H84  1  0.565700  0.102850  0.685800  1.0
  C  C85  1  0.195530  0.093980  0.541640  1.0
  C  C86  1  0.804470  0.093980  0.958360  1.0
  C  C87  1  0.695530  0.593980  0.541640  1.0
  C  C88  1  0.304470  0.593980  0.958360  1.0
  C  C89  1  0.804470  0.906020  0.458360  1.0
  C  C90  1  0.195530  0.906020  0.041640  1.0
  C  C91  1  0.304470  0.406020  0.458360  1.0
  C  C92  1  0.695530  0.406020  0.041640  1.0
  C  C93  1  0.114730  0.138670  0.393240  1.0
  C  C94  1  0.885270  0.138670  0.106760  1.0
  C  C95  1  0.614730  0.638670  0.393240  1.0
  C  C96  1  0.385270  0.638670  0.106760  1.0
  C  C97  1  0.885270  0.861330  0.606760  1.0
  C  C98  1  0.114730  0.861330  0.893240  1.0
  C  C99  1  0.385270  0.361330  0.606760  1.0
  C  C100  1  0.614730  0.361330  0.893240  1.0
  C  C101  1  0.132230  0.061470  0.477340  1.0
  C  C102  1  0.867770  0.061470  0.022660  1.0
  C  C103  1  0.632230  0.561470  0.477340  1.0
  C  C104  1  0.367770  0.561470  0.022660  1.0
  C  C105  1  0.867770  0.938530  0.522660  1.0
  C  C106  1  0.132230  0.938530  0.977340  1.0
  C  C107  1  0.367770  0.438530  0.522660  1.0
  C  C108  1  0.632230  0.438530  0.977340  1.0
  C  C109  1  0.100440  0.885720  0.567540  1.0
  C  C110  1  0.899560  0.885720  0.932460  1.0
  C  C111  1  0.600440  0.385720  0.567540  1.0
  C  C112  1  0.399560  0.385720  0.932460  1.0
  C  C113  1  0.899560  0.114280  0.432460  1.0
  C  C114  1  0.100440  0.114280  0.067540  1.0
  C  C115  1  0.399560  0.614280  0.432460  1.0
  C  C116  1  0.600440  0.614280  0.067540  1.0
  C  C117  1  0.208830  0.024970  0.619340  1.0
  C  C118  1  0.791170  0.024970  0.880660  1.0
  C  C119  1  0.708830  0.524970  0.619340  1.0
  C  C120  1  0.291170  0.524970  0.880660  1.0
  C  C121  1  0.791170  0.975030  0.380660  1.0
  C  C122  1  0.208830  0.975030  0.119340  1.0
  C  C123  1  0.291170  0.475030  0.380660  1.0
  C  C124  1  0.708830  0.475030  0.119340  1.0
  C  C125  1  0.250540  0.947810  0.750240  1.0
  C  C126  1  0.749460  0.947810  0.749760  1.0
  C  C127  1  0.750540  0.447810  0.750240  1.0
  C  C128  1  0.249460  0.447810  0.749760  1.0
  C  C129  1  0.749460  0.052190  0.249760  1.0
  C  C130  1  0.250540  0.052190  0.250240  1.0
  C  C131  1  0.249460  0.552190  0.249760  1.0
  C  C132  1  0.750540  0.552190  0.250240  1.0
  C  C133  1  0.163030  0.921130  0.631940  1.0
  C  C134  1  0.836970  0.921130  0.868060  1.0
  C  C135  1  0.663030  0.421130  0.631940  1.0
  C  C136  1  0.336970  0.421130  0.868060  1.0
  C  C137  1  0.836970  0.078870  0.368060  1.0
  C  C138  1  0.163030  0.078870  0.131940  1.0
  C  C139  1  0.336970  0.578870  0.368060  1.0
  C  C140  1  0.663030  0.578870  0.131940  1.0
  C  C141  1  0.086130  0.958020  0.490340  1.0
  C  C142  1  0.913870  0.958020  0.009660  1.0
  C  C143  1  0.586130  0.458020  0.490340  1.0
  C  C144  1  0.413870  0.458020  0.009660  1.0
  C  C145  1  0.913870  0.041980  0.509660  1.0
  C  C146  1  0.086130  0.041980  0.990340  1.0
  C  C147  1  0.413870  0.541980  0.509660  1.0
  C  C148  1  0.586130  0.541980  0.990340  1.0
  C  C149  1  0.298960  0.918389  0.839160  1.0
  C  C150  1  0.701040  0.918389  0.660840  1.0
  C  C151  1  0.798960  0.418389  0.839160  1.0
  C  C152  1  0.201040  0.418389  0.660840  1.0
  C  C153  1  0.701040  0.081611  0.160840  1.0
  C  C154  1  0.298960  0.081611  0.339160  1.0
  C  C155  1  0.201040  0.581611  0.160840  1.0
  C  C156  1  0.798960  0.581611  0.339160  1.0
  C  C157  1  0.367780  0.821382  0.838810  1.0
  C  C158  1  0.632220  0.821382  0.661190  1.0
  C  C159  1  0.867780  0.321382  0.838810  1.0
  C  C160  1  0.132220  0.321382  0.661190  1.0
  C  C161  1  0.632220  0.178618  0.161190  1.0
  C  C162  1  0.367780  0.178618  0.338810  1.0
  C  C163  1  0.132220  0.678618  0.161190  1.0
  C  C164  1  0.867780  0.678618  0.338810  1.0
  N  N165  1  0.265130  0.041470  0.696130  1.0
  N  N166  1  0.734870  0.041470  0.803870  1.0
  N  N167  1  0.765130  0.541470  0.696130  1.0
  N  N168  1  0.234870  0.541470  0.803870  1.0
  N  N169  1  0.734870  0.958530  0.303870  1.0
  N  N170  1  0.265130  0.958530  0.196130  1.0
  N  N171  1  0.234870  0.458530  0.303870  1.0
  N  N172  1  0.765130  0.458530  0.196130  1.0
  N  N173  1  0.191030  0.870330  0.716530  1.0
  N  N174  1  0.808970  0.870330  0.783470  1.0
  N  N175  1  0.691030  0.370330  0.716530  1.0
  N  N176  1  0.308970  0.370330  0.783470  1.0
  N  N177  1  0.808970  0.129670  0.283470  1.0
  N  N178  1  0.191030  0.129670  0.216530  1.0
  N  N179  1  0.308970  0.629670  0.283470  1.0
  N  N180  1  0.691030  0.629670  0.216530  1.0
  O  O181  1  0.055320  0.111160  0.338030  1.0
  O  O182  1  0.944680  0.111160  0.161970  1.0
  O  O183  1  0.555320  0.611160  0.338030  1.0
  O  O184  1  0.444680  0.611160  0.161970  1.0
  O  O185  1  0.944680  0.888840  0.661970  1.0
  O  O186  1  0.055320  0.888840  0.838030  1.0
  O  O187  1  0.444680  0.388840  0.661970  1.0
  O  O188  1  0.555320  0.388840  0.838030  1.0
  O  O189  1  0.064730  0.365470  0.219240  1.0
  O  O190  1  0.935270  0.365470  0.280760  1.0
  O  O191  1  0.564730  0.865470  0.219240  1.0
  O  O192  1  0.435270  0.865470  0.280760  1.0
  O  O193  1  0.935270  0.634530  0.780760  1.0
  O  O194  1  0.064730  0.634530  0.719240  1.0
  O  O195  1  0.435270  0.134530  0.780760  1.0
  O  O196  1  0.564730  0.134530  0.719240  1.0
  O  O197  1  0.157420  0.227560  0.381230  1.0
  O  O198  1  0.842580  0.227560  0.118770  1.0
  O  O199  1  0.657420  0.727560  0.381230  1.0
  O  O200  1  0.342580  0.727560  0.118770  1.0
  O  O201  1  0.842580  0.772440  0.618770  1.0
  O  O202  1  0.157420  0.772440  0.881230  1.0
  O  O203  1  0.342580  0.272440  0.618770  1.0
  O  O204  1  0.657420  0.272440  0.881230  1.0
  O  O205  1  0.336950  0.048690  0.871240  1.0
  O  O206  1  0.663050  0.048690  0.628760  1.0
  O  O207  1  0.836950  0.548690  0.871240  1.0
  O  O208  1  0.163050  0.548690  0.628760  1.0
  O  O209  1  0.663050  0.951310  0.128760  1.0
  O  O210  1  0.336950  0.951310  0.371240  1.0
  O  O211  1  0.163050  0.451310  0.128760  1.0
  O  O212  1  0.836950  0.451310  0.371240  1.0
